Version 4
SHEET 1 880 680
WIRE -176 -112 -480 -112
WIRE -688 -96 -736 -96
WIRE -544 -96 -688 -96
WIRE -176 64 -176 -112
WIRE -176 64 -208 64
WIRE -752 96 -752 16
WIRE -592 96 -752 96
WIRE -384 96 -464 96
WIRE -320 96 -384 96
WIRE -160 128 -208 128
WIRE -320 160 -352 160
WIRE -112 176 -128 176
WIRE -192 192 -208 192
WIRE -112 192 -112 176
WIRE -112 192 -128 192
WIRE -96 192 -112 192
WIRE -112 208 -112 192
WIRE -112 208 -128 208
WIRE -112 224 -128 224
WIRE -96 224 -112 224
WIRE -112 240 -112 224
WIRE -112 240 -128 240
WIRE -384 256 -384 96
WIRE -384 256 -464 256
WIRE -720 288 -784 288
WIRE -352 288 -352 160
WIRE -352 288 -464 288
WIRE -96 288 -96 224
WIRE -96 288 -352 288
WIRE -448 320 -464 320
FLAG -544 -128 AD_IN
IOPIN -544 -128 In
FLAG -512 -144 0
FLAG -512 -80 AD_REF
IOPIN -512 -80 In
FLAG -384 96 Y[0:7]
FLAG -784 288 8bit_out[0:7]
IOPIN -784 288 Out
FLAG -448 320 OUTPUT_ENABLE
IOPIN -448 320 In
FLAG -160 128 AD_Clock
IOPIN -160 128 In
FLAG -96 192 RESET_SAR
IOPIN -96 192 In
FLAG -688 -96 debug
IOPIN -688 -96 Out
FLAG -816 -96 0
FLAG -752 16 out
FLAG -816 16 0
SYMBOL Opamps\\UniversalOpamp2 -512 -112 M180
SYMATTR InstName COMPARATOR
SYMBOL DAC8 -528 96 R180
SYMATTR InstName DAC
SYMATTR SpiceModel DAC8
SYMBOL SAR_LOGIC -256 128 R0
SYMATTR InstName X1
SYMBOL Latch_8bit -576 288 R0
SYMATTR InstName X2
SYMBOL bv -720 -96 R90
WINDOW 0 -32 56 VBottom 2
WINDOW 3 32 56 VTop 2
SYMATTR InstName B1
SYMATTR Value V = { V(out) * V(AD_REF)}
SYMBOL Digital\\or -160 144 M0
SYMATTR InstName A1
