Version 4
SHEET 1 1436 680
WIRE 512 176 512 80
WIRE 304 192 272 192
WIRE 304 224 256 224
WIRE 304 256 256 256
WIRE 672 256 608 256
WIRE 720 256 672 256
WIRE 864 256 848 256
WIRE 1312 256 960 256
WIRE 304 288 288 288
WIRE 304 320 272 320
FLAG -272 80 0
FLAG -272 0 V_IN
IOPIN -272 0 Out
FLAG -160 400 0
FLAG -160 320 V_REF
IOPIN -160 320 Out
FLAG 272 192 V_REF
IOPIN 272 192 In
FLAG 256 224 V_IN
IOPIN 256 224 In
FLAG 256 256 Clock
IOPIN 256 256 In
FLAG 272 320 V_ENABLE
IOPIN 272 320 In
FLAG 672 256 Y[0:7]
FLAG 1312 256 OUT
IOPIN 1312 256 Out
FLAG -48 400 0
FLAG -48 320 V_ENABLE
IOPIN -48 320 Out
FLAG -288 448 0
FLAG -288 368 Clock
IOPIN -288 368 Out
FLAG 32 400 0
FLAG 32 320 RESET
IOPIN 32 320 Out
FLAG 288 288 RESET
IOPIN 288 288 In
FLAG 512 80 debug
IOPIN 512 80 Out
FLAG 864 256 out_1
FLAG 864 320 0
FLAG 960 336 0
SYMBOL voltage -272 -16 R0
WINDOW 123 0 0 Left 2
WINDOW 39 0 0 Left 2
SYMATTR InstName V1
SYMATTR Value SINE(0.5 0.5 5)
SYMBOL voltage -160 304 R0
WINDOW 123 0 0 Left 2
WINDOW 39 0 0 Left 2
SYMATTR InstName V2
SYMATTR Value 1
SYMBOL SAR 448 304 R0
SYMATTR InstName X1
SYMBOL DAC8 784 256 R0
SYMATTR InstName U1
SYMATTR SpiceModel DAC8
SYMBOL voltage -48 304 R0
WINDOW 123 0 0 Left 2
WINDOW 39 0 0 Left 2
SYMATTR InstName V3
SYMATTR Value 1
SYMBOL voltage -288 352 R0
WINDOW 123 0 0 Left 2
WINDOW 39 0 0 Left 2
SYMATTR InstName V4
SYMATTR Value PULSE(0 1 0 0 0 50u 100u)
SYMBOL voltage 32 304 R0
WINDOW 123 0 0 Left 2
WINDOW 39 0 0 Left 2
SYMATTR InstName V5
SYMATTR Value PULSE(0 1 0 0 0 1u 2u 1)
SYMBOL bv 960 240 R0
SYMATTR InstName B1
SYMATTR Value V= {V(V_REF) * V(out_1)}
TEXT -112 -136 Left 2 !.tran 400m
TEXT -144 -72 Left 2 !.include ADC8.sub
TEXT -144 -96 Left 2 !.include DAC8.sub
